data/D047205/Lines.dss
New Line.line0 Units=km Length=0.001 bus1=n457874.1.2.3 bus2=n457875.1.2.3 switch=n enabled=y phases=3 Linecode=unknown_linecode_3
New Line.line1 Units=km Length=0.11801 bus1=n457875.1.2.3 bus2=n457876.1.2.3 switch=n enabled=y phases=3 Linecode=LV_240AL_XLPE_3
New Line.line10 Units=km Length=0.0375 bus1=n457882.1.2.3 bus2=n457883.1.2.3 switch=n enabled=y phases=3 Linecode=7/4.4_Al_3
New Line.line11 Units=km Length=0.03134 bus1=n457883.1.2.3 bus2=n457884.1.2.3 switch=n enabled=y phases=3 Linecode=7/4.4_Al_3
New Line.line12 Units=km Length=0.023 bus1=n457884.1.2.3 bus2=n457885.1.2.3 switch=n enabled=y phases=3 Linecode=7/4.4_Al_3
New Line.line13 Units=km Length=0.042710000000000005 bus1=n457885.1.2.3 bus2=n457886.1.2.3 switch=n enabled=y phases=3 Linecode=7/4.4_Al_3
New Line.line14 Units=km Length=0.001 bus1=n457886.1.2.3 bus2=n737152.1.2.3 switch=n enabled=y phases=3 Linecode=7/4.4_Al_3
New Line.line15 Units=km Length=0.051140000000000005 bus1=n457887.1.2.3 bus2=n457888.1.2.3 switch=n enabled=y phases=3 Linecode=7/4.4_Al_3
New Line.line16 Units=km Length=0.001 bus1=n457888.1.2.3 bus2=n623173.1.2.3 switch=n enabled=y phases=3 Linecode=7/4.4_Al_3
New Line.line17 Units=km Length=0.001 bus1=n457881.1.2.3 bus2=n737153.1.2.3 switch=n enabled=y phases=3 Linecode=7/4.4_Al_3
New Line.line18 Units=km Length=0.01756 bus1=n457879.1.2.3 bus2=n457889.1.2.3 switch=n enabled=y phases=3 Linecode=unknown_linecode_3
New Line.line19 Units=km Length=0.001 bus1=n457889.1.2.3 bus2=n737154.1.2.3 switch=n enabled=y phases=3 Linecode=unknown_linecode_3
New Line.line2 Units=km Length=0.001 bus1=n457876.1.2.3 bus2=n457877.1.2.3 switch=n enabled=y phases=3 Linecode=7/4.4_Al_3
New Line.line3 Units=km Length=0.001 bus1=n457877.1.2.3 bus2=n457878.1.2.3 switch=n enabled=y phases=3 Linecode=7/4.4_Al_3
New Line.line4 Units=km Length=0.03313000000000001 bus1=n457878.1.2.3 bus2=n457879.1.2.3 switch=n enabled=y phases=3 Linecode=7/4.4_Al_3
New Line.line5 Units=km Length=0.019870000000000002 bus1=n457879.1.2.3 bus2=n457880.1.2.3 switch=n enabled=y phases=3 Linecode=unknown_linecode_3
New Line.line6 Units=km Length=0.001 bus1=n457880.1.2.3 bus2=n737151.1.2.3 switch=n enabled=y phases=3 Linecode=unknown_linecode_3
New Line.line7 Units=km Length=0.03478 bus1=n457879.1.2.3 bus2=n457887.1.2.3 switch=n enabled=y phases=3 Linecode=7/4.4_Al_3
New Line.line8 Units=km Length=0.03694 bus1=n457878.1.2.3 bus2=n457881.1.2.3 switch=n enabled=y phases=3 Linecode=7/4.4_Al_3
New Line.line9 Units=km Length=0.01875 bus1=n457881.1.2.3 bus2=n457882.1.2.3 switch=n enabled=y phases=3 Linecode=7/4.4_Al_3
